  0
SECTION
  2
ENTITIES
999
DXF created from EnergyPlus
999
Program Version,EnergyPlus, Version 9.0.1-bb7ca4f0da, YMD=2021.01.06 11:28
999
Polygon Action,TRIANGULATE3DFACE
999
Color Scheme,Default
999
Text - True North
  0
TEXT
  8
1
  6
Continuous
 62
  3
 10
       -7.50000
 20
       -2.62500
 30
        0.10000
 40
 .25
  1
True North
 41
 0.0
  7
MONOTXT
210
0.0
220
0.0
230
1.0
999
Text - Building Title
  0
TEXT
  8
1
  6
Continuous
 62
  3
 10
      -10.50000
 20
       -6.62500
 30
        0.10000
 40
 .4
  1
Building - Building
 41
 0.0
  7
MONOTXT
210
0.0
220
0.0
230
1.0
999
North Arrow Stem
  0
3DFACE
  8
1
 62
  3
 10
       -6.50000
 20
       -2.62500
 30
        0.10000
 11
       -6.50000
 21
       -2.62500
 31
        0.00000
 12
       -6.50000
 22
       -5.62500
 32
        0.00000
 13
       -6.50000
 23
       -5.62500
 33
        0.10000
999
North Arrow Head 1
  0
3DFACE
  8
1
 62
  3
 10
       -6.50000
 20
       -2.62500
 30
        0.10000
 11
       -6.50000
 21
       -2.62500
 31
        0.00000
 12
       -7.00000
 22
       -3.49103
 32
        0.00000
 13
       -7.00000
 23
       -3.49103
 33
        0.10000
999
North Arrow Head 2
  0
3DFACE
  8
1
 62
  3
 10
       -6.50000
 20
       -2.62500
 30
        0.10000
 11
       -6.50000
 21
       -2.62500
 31
        0.00000
 12
       -6.00000
 22
       -3.49103
 32
        0.00000
 13
       -6.00000
 23
       -3.49103
 33
        0.10000
999
North Arrow Side 1
  0
3DFACE
  8
1
 62
  3
 10
       -7.00000
 20
       -1.12500
 30
        0.10000
 11
       -7.00000
 21
       -1.12500
 31
        0.00000
 12
       -7.00000
 22
       -2.12500
 32
        0.00000
 13
       -7.00000
 23
       -2.12500
 33
        0.10000
999
North Arrow Side 2
  0
3DFACE
  8
1
 62
  3
 10
       -7.00000
 20
       -1.12500
 30
        0.10000
 11
       -7.00000
 21
       -1.12500
 31
        0.00000
 12
       -6.00000
 22
       -2.12500
 32
        0.00000
 13
       -6.00000
 23
       -2.12500
 33
        0.10000
999
North Arrow Side 3
  0
3DFACE
  8
1
 62
  3
 10
       -6.00000
 20
       -1.12500
 30
        0.10000
 11
       -6.00000
 21
       -1.12500
 31
        0.00000
 12
       -6.00000
 22
       -2.12500
 32
        0.00000
 13
       -6.00000
 23
       -2.12500
 33
        0.10000
999
Zone Names
999
Zone=1:BLOCCO1_ZONA3
999
Zone=2:BLOCCO1_ZONA1
999
Zone=3:BLOCCO1_ZONA2
999
BLOCCO1:ZONA3:BLOCCO1:ZONA3_PARTITION_2_0_0
  0
3DFACE
  8
BLOCCO1_ZONA3
 62
 43
 10
        5.50000
 20
       -0.62290
 30
        3.50000
 11
        5.50000
 21
       -0.62290
 31
        0.00000
 12
        5.50000
 22
        1.37500
 32
        0.00000
 13
        5.50000
 23
        1.37500
 33
        3.50000
999
BLOCCO1:ZONA3:BLOCCO1:ZONA3_PARTITION_3_0_0
  0
3DFACE
  8
BLOCCO1_ZONA3
 62
 43
 10
        5.50000
 20
        1.37500
 30
        3.50000
 11
        5.50000
 21
        1.37500
 31
        0.00000
 12
        3.50000
 22
        1.37500
 32
        0.00000
 13
        3.50000
 23
        1.37500
 33
        3.50000
999
BLOCCO1:ZONA3:BLOCCO1:ZONA3_PARTITION_4_0_0
  0
3DFACE
  8
BLOCCO1_ZONA3
 62
 43
 10
        3.50000
 20
        1.37500
 30
        3.50000
 11
        3.50000
 21
        1.37500
 31
        0.00000
 12
        3.50000
 22
       -5.62500
 32
        0.00000
 13
        3.50000
 23
       -5.62500
 33
        3.50000
999
BLOCCO1:ZONA3:BLOCCO1:ZONA3_WALL_5_0_0
  0
3DFACE
  8
BLOCCO1_ZONA3
 62
 43
 10
        3.50000
 20
       -5.62500
 30
        3.50000
 11
        3.50000
 21
       -5.62500
 31
        0.00000
 12
        8.50000
 22
       -5.62500
 32
        0.00000
 13
        8.50000
 23
       -5.62500
 33
        3.50000
999
BLOCCO1:ZONA3:BLOCCO1:ZONA3_WALL_5_0_0_0_0_0_WIN
  0
3DFACE
  8
BLOCCO1_ZONA3
 62
143
 10
        4.35620
 20
       -5.62500
 30
        2.36000
 11
        4.35620
 21
       -5.62500
 31
        0.94000
 12
        7.42630
 22
       -5.62500
 32
        0.94000
 13
        7.42630
 23
       -5.62500
 33
        2.36000
999
BLOCCO1:ZONA3:BLOCCO1:ZONA3_WALL_6_0_0
  0
3DFACE
  8
BLOCCO1_ZONA3
 62
 43
 10
        8.50000
 20
       -5.62500
 30
        3.50000
 11
        8.50000
 21
       -5.62500
 31
        0.00000
 12
        8.50000
 22
       -0.62290
 32
        0.00000
 13
        8.50000
 23
       -0.62290
 33
        3.50000
999
BLOCCO1:ZONA3:BLOCCO1:ZONA3_WALL_6_0_0_0_0_0_WIN
  0
3DFACE
  8
BLOCCO1_ZONA3
 62
143
 10
        8.50000
 20
       -4.55096
 30
        2.36000
 11
        8.50000
 21
       -4.55096
 31
        0.94000
 12
        8.50000
 22
       -1.47943
 32
        0.94000
 13
        8.50000
 23
       -1.47943
 33
        2.36000
999
BLOCCO1:ZONA3:BLOCCO1:ZONA3_PARTITION_7_0_0
  0
3DFACE
  8
BLOCCO1_ZONA3
 62
 43
 10
        8.50000
 20
       -0.62290
 30
        3.50000
 11
        8.50000
 21
       -0.62290
 31
        0.00000
 12
        5.50000
 22
       -0.62290
 32
        0.00000
 13
        5.50000
 23
       -0.62290
 33
        3.50000
999
BLOCCO1:ZONA3:BLOCCO1:ZONA3_FLOOR_0_0_0
  0
3DFACE
  8
BLOCCO1_ZONA3
 62
  8
 10
        5.50000
 20
        1.37500
 30
        0.00000
 11
        5.50000
 21
       -0.62290
 31
        0.00000
 12
        3.50000
 22
       -0.62290
 32
        0.00000
 13
        3.50000
 23
        1.37500
 33
        0.00000
999
BLOCCO1:ZONA3:BLOCCO1:ZONA3_FLOOR_0_0_1
  0
3DFACE
  8
BLOCCO1_ZONA3
 62
  8
 10
        8.50000
 20
       -0.62290
 30
        0.00000
 11
        8.50000
 21
       -5.62500
 31
        0.00000
 12
        3.50000
 22
       -5.62500
 32
        0.00000
 13
        3.50000
 23
       -0.62290
 33
        0.00000
999
BLOCCO1:ZONA3:BLOCCO1:ZONA3_ROOF_1_0_0
  0
3DFACE
  8
BLOCCO1_ZONA3
 62
 15
 10
        5.50000
 20
       -0.62290
 30
        3.50000
 11
        5.50000
 21
       -5.62500
 31
        3.50000
 12
        8.50000
 22
       -5.62500
 32
        3.50000
 13
        8.50000
 23
       -0.62290
 33
        3.50000
999
BLOCCO1:ZONA3:BLOCCO1:ZONA3_ROOF_1_0_1
  0
3DFACE
  8
BLOCCO1_ZONA3
 62
 15
 10
        3.50000
 20
        1.37500
 30
        3.50000
 11
        3.50000
 21
       -5.62500
 31
        3.50000
 12
        5.50000
 22
       -5.62500
 32
        3.50000
 13
        5.50000
 23
        1.37500
 33
        3.50000
999
BLOCCO1:ZONA1:BLOCCO1:ZONA1_PARTITION_4_0_10002
  0
3DFACE
  8
BLOCCO1_ZONA1
 62
 43
 10
        5.50000
 20
        1.37500
 30
        3.50000
 11
        5.50000
 21
        1.37500
 31
        0.00000
 12
        5.50000
 22
       -0.62290
 32
        0.00000
 13
        5.50000
 23
       -0.62290
 33
        3.50000
999
BLOCCO1:ZONA1:BLOCCO1:ZONA1_PARTITION_5_0_10005
  0
3DFACE
  8
BLOCCO1_ZONA1
 62
 43
 10
        5.50000
 20
       -0.62290
 30
        3.50000
 11
        5.50000
 21
       -0.62290
 31
        0.00000
 12
        8.50000
 22
       -0.62290
 32
        0.00000
 13
        8.50000
 23
       -0.62290
 33
        3.50000
999
BLOCCO1:ZONA1:BLOCCO1:ZONA1_WALL_2_0_0
  0
3DFACE
  8
BLOCCO1_ZONA1
 62
 43
 10
        8.50000
 20
       -0.62290
 30
        3.50000
 11
        8.50000
 21
       -0.62290
 31
        0.00000
 12
        8.50000
 22
        1.37500
 32
        0.00000
 13
        8.50000
 23
        1.37500
 33
        3.50000
999
BLOCCO1:ZONA1:BLOCCO1:ZONA1_WALL_2_0_0_0_0_0_WIN
  0
3DFACE
  8
BLOCCO1_ZONA1
 62
143
 10
        8.50000
 20
       -0.21223
 30
        2.36000
 11
        8.50000
 21
       -0.21223
 31
        0.94000
 12
        8.50000
 22
        0.96434
 32
        0.94000
 13
        8.50000
 23
        0.96434
 33
        2.36000
999
BLOCCO1:ZONA1:BLOCCO1:ZONA1_PARTITION_3_0_0
  0
3DFACE
  8
BLOCCO1_ZONA1
 62
 43
 10
        8.50000
 20
        1.37500
 30
        3.50000
 11
        8.50000
 21
        1.37500
 31
        0.00000
 12
        5.50000
 22
        1.37500
 32
        0.00000
 13
        5.50000
 23
        1.37500
 33
        3.50000
999
BLOCCO1:ZONA1:BLOCCO1:ZONA1_FLOOR_0_0_0
  0
3DFACE
  8
BLOCCO1_ZONA1
 62
  8
 10
        8.50000
 20
        1.37500
 30
        0.00000
 11
        8.50000
 21
       -0.62290
 31
        0.00000
 12
        5.50000
 22
       -0.62290
 32
        0.00000
 13
        5.50000
 23
        1.37500
 33
        0.00000
999
BLOCCO1:ZONA1:BLOCCO1:ZONA1_ROOF_1_0_0
  0
3DFACE
  8
BLOCCO1_ZONA1
 62
 15
 10
        5.50000
 20
        1.37500
 30
        3.50000
 11
        5.50000
 21
       -0.62290
 31
        3.50000
 12
        8.50000
 22
       -0.62290
 32
        3.50000
 13
        8.50000
 23
        1.37500
 33
        3.50000
999
BLOCCO1:ZONA2:BLOCCO1:ZONA2_PARTITION_5_0_10003
  0
3DFACE
  8
BLOCCO1_ZONA2
 62
 43
 10
        3.50000
 20
        1.37500
 30
        3.50000
 11
        3.50000
 21
        1.37500
 31
        0.00000
 12
        5.50000
 22
        1.37500
 32
        0.00000
 13
        5.50000
 23
        1.37500
 33
        3.50000
999
BLOCCO1:ZONA2:BLOCCO1:ZONA2_PARTITION_6_0_10007
  0
3DFACE
  8
BLOCCO1_ZONA2
 62
 43
 10
        5.50000
 20
        1.37500
 30
        3.50000
 11
        5.50000
 21
        1.37500
 31
        0.00000
 12
        8.50000
 22
        1.37500
 32
        0.00000
 13
        8.50000
 23
        1.37500
 33
        3.50000
999
BLOCCO1:ZONA2:BLOCCO1:ZONA2_WALL_2_0_0
  0
3DFACE
  8
BLOCCO1_ZONA2
 62
 43
 10
        8.50000
 20
        1.37500
 30
        3.50000
 11
        8.50000
 21
        1.37500
 31
        0.00000
 12
        8.50000
 22
        5.37500
 32
        0.00000
 13
        8.50000
 23
        5.37500
 33
        3.50000
999
BLOCCO1:ZONA2:BLOCCO1:ZONA2_WALL_2_0_0_0_0_0_WIN
  0
3DFACE
  8
BLOCCO1_ZONA2
 62
143
 10
        8.50000
 20
        2.07120
 30
        2.36000
 11
        8.50000
 21
        2.07120
 31
        0.94000
 12
        8.50000
 22
        4.46130
 32
        0.94000
 13
        8.50000
 23
        4.46130
 33
        2.36000
999
BLOCCO1:ZONA2:BLOCCO1:ZONA2_WALL_3_0_0
  0
3DFACE
  8
BLOCCO1_ZONA2
 62
 43
 10
        8.50000
 20
        5.37500
 30
        3.50000
 11
        8.50000
 21
        5.37500
 31
        0.00000
 12
        3.50000
 22
        5.37500
 32
        0.00000
 13
        3.50000
 23
        5.37500
 33
        3.50000
999
BLOCCO1:ZONA2:BLOCCO1:ZONA2_WALL_3_0_0_0_0_0_WIN
  0
3DFACE
  8
BLOCCO1_ZONA2
 62
143
 10
        7.42630
 20
        5.37500
 30
        2.36000
 11
        7.42630
 21
        5.37500
 31
        0.94000
 12
        4.35620
 22
        5.37500
 32
        0.94000
 13
        4.35620
 23
        5.37500
 33
        2.36000
999
BLOCCO1:ZONA2:BLOCCO1:ZONA2_PARTITION_4_0_0
  0
3DFACE
  8
BLOCCO1_ZONA2
 62
 43
 10
        3.50000
 20
        5.37500
 30
        3.50000
 11
        3.50000
 21
        5.37500
 31
        0.00000
 12
        3.50000
 22
        1.37500
 32
        0.00000
 13
        3.50000
 23
        1.37500
 33
        3.50000
999
BLOCCO1:ZONA2:BLOCCO1:ZONA2_FLOOR_0_0_0
  0
3DFACE
  8
BLOCCO1_ZONA2
 62
  8
 10
        8.50000
 20
        5.37500
 30
        0.00000
 11
        8.50000
 21
        1.37500
 31
        0.00000
 12
        3.50000
 22
        1.37500
 32
        0.00000
 13
        3.50000
 23
        5.37500
 33
        0.00000
999
BLOCCO1:ZONA2:BLOCCO1:ZONA2_ROOF_1_0_0
  0
3DFACE
  8
BLOCCO1_ZONA2
 62
 15
 10
        3.50000
 20
        5.37500
 30
        3.50000
 11
        3.50000
 21
        1.37500
 31
        3.50000
 12
        8.50000
 22
        1.37500
 32
        3.50000
 13
        8.50000
 23
        5.37500
 33
        3.50000
999
BLOCCO1:ZONA3:DayRefPt:1
  0
CIRCLE
  8
BLOCCO1_ZONA3
 62
 10
 10
        6.00000
 20
       -3.12400
 30
        0.90000
 40
        0.20000
999
BLOCCO1:ZONA1:DayRefPt:1
  0
CIRCLE
  8
BLOCCO1_ZONA1
 62
 10
 10
        7.00000
 20
        0.37600
 30
        0.90000
 40
        0.20000
999
BLOCCO1:ZONA2:DayRefPt:1
  0
CIRCLE
  8
BLOCCO1_ZONA2
 62
 10
 10
        6.00000
 20
        3.37500
 30
        0.90000
 40
        0.20000
999
BLOCCO1:ZONA3:DEDayRefPt:1
  0
CIRCLE
  8
BLOCCO1_ZONA3
 62
 10
 10
        6.00000
 20
       -3.12400
 30
        0.90000
 40
        0.20000
999
BLOCCO1:ZONA1:DEDayRefPt:1
  0
CIRCLE
  8
BLOCCO1_ZONA1
 62
 10
 10
        7.00000
 20
        0.37600
 30
        0.90000
 40
        0.20000
999
BLOCCO1:ZONA2:DEDayRefPt:1
  0
CIRCLE
  8
BLOCCO1_ZONA2
 62
 10
 10
        6.00000
 20
        3.37500
 30
        0.90000
 40
        0.20000
  0
ENDSEC
  0
EOF
